autotest/input_1/ieee123_anticipation.glm
////////////////////////////////////////////////////////
// BEGIN
////////////////////////////////////////////////////////
// filename... ieee123_anticipation.glm
// workdir.... /Users/alyona_slac/gridlabd/gridlabd-models/ieee123
// command.... /usr/local/opt/gridlabd/4.2.16-210124-develop-complex-formatting-fix/bin/gridlabd.bin -C -D glm_save_options=MINIMAL model/ieee123.glm -o ieee123_anticipation.glm
// created.... Wed Feb  3 15:09:40 2021
// user....... alyona_slac
// host....... localhost
// modules.... 5
// classes.... 92
// objects.... 1220
// options.... MINIMAL

////////////////////////////////////////////////////////

// CLOCK
clock {
	timezone "PST8PDT";
	starttime "2021-02-01 10:00:00 PST";
	stoptime "2021-02-02 00:00:00 PST";
}

////////////////////////////////////////////////////////
// modules
module tape;
module reliability {
    report_event_log false;
} 
module climate {
	message_flags "DEBUG|VERBOSE";
	library_path "/usr/local/opt/gridlabd/4.2.16-210124-develop-complex-formatting-fix/share/gridlabd/weather/US";
}
module powerflow {
	message_flags "DEBUG|VERBOSE";
	show_matrix_values "FALSE";
	primary_voltage_ratio "+60";
	nominal_frequency "+60";
	require_voltage_control "FALSE";
	geographic_degree "+0";
	fault_impedance "+1e-06+0j";
	ground_impedance "+1e-06+0j";
	warning_underfrequency "+55";
	warning_overfrequency "+65";
	warning_undervoltage "+0.8";
	warning_overvoltage "+1.2";
	warning_voltageangle "+2";
	maximum_voltage_error "+1e-06";
	solver_method "NR";
	NR_matrix_file "";
	NR_matrix_output_interval "NEVER";
	NR_matrix_output_references "FALSE";
	line_capacitance "TRUE";
	line_limits "TRUE";
	lu_solver "";
	NR_iteration_limit "500";
	NR_deltamode_iteration_limit "10";
	NR_superLU_procs "1";
	default_maximum_voltage_error "+1e-06";
	default_maximum_power_error "+0.0001";
	NR_admit_change "TRUE";
	enable_subsecond_models "FALSE";
	all_powerflow_delta "FALSE";
	deltamode_timestep "+1e+07 ns";
	current_frequency "+60 Hz";
	master_frequency_update "FALSE";
	enable_frequency_dependence "FALSE";
	default_resistance "+0.0001";
	enable_inrush "FALSE";
	low_voltage_impedance_level "+0.7";
	enable_mesh_fault_current "FALSE";
	convergence_error_handling "IGNORE";
	solver_profile_enable "TRUE";
	solver_profile_filename "solver_nr_profile.csv";
	solver_profile_headers_included "TRUE";
	solver_headers "timestamp,duration[microsec],iteration,bus_count,branch_count,error";
	solver_py_config "/usr/local/var/gridlabd/solver_py.conf";
	solver_dump_enable "FALSE";
	violation_record "";
	violation_count "0";
	violation_active "0";
	market_price_name "current_market.clearing_price";
	repair_time "+24 h";
	climate_impact_zone "NONE";
}
module generators {
	message_flags "DEBUG|VERBOSE";
	enable_subsecond_models "FALSE";
	deltamode_timestep "+1e+07 ns";
}
module residential {
	message_flags "DEBUG|VERBOSE";
	default_line_voltage "+240+0d V";
	default_line_current "+0+0j A";
	default_outdoor_temperature "+74 degF";
	default_humidity "+75 %";
	default_solar "+0 Btu/sf";
	default_etp_iterations "100";
	ANSI_voltage_check "TRUE";
	enable_subsecond_models "FALSE";
	deltamode_timestep "+1e+07 ns";
	all_house_delta "FALSE";
	implicit_enduses "DRYER|CLOTHESWASHER|WATERHEATER|RANGE|REFRIGERATOR|FREEZER|MICROWAVE|DISHWASHER|PLUGS|LIGHTS";
	implicit_enduse_source "ELCAP1990";
	house_low_temperature_warning "+55 degF";
	house_high_temperature_warning "+95 degF";
	thermostat_control_warning "+4.94066e-324";
	system_dwell_time "+1 s";
	aux_cutin_temperature "+10 degF";
	paneldump_filename "paneldump.csv";
	paneldump_interval "0";
	paneldump_resolution "+0";
}
module tape {
	gnuplot_path "/usr/bin/gnuplot";
	flush_interval "0";
	csv_data_only "0";
	csv_header_type "FULL";
	csv_keep_clean "0";
	delta_mode_needed "NEVER";
}

////////////////////////////////////////////////////////
// classes
class solar {
	set phases;
}
// schedules

////////////////////////////////////////////////////////
// objects
object fault_check
{
    check_mode ONCHANGE;
    output_filename "fault_check.txt";
    reliability_mode TRUE;
}
object climate.climate {
	name "weather";
	latitude "35N25:60.00";
	longitude "119W2:60.00";
	guid "45B0FDAC7D6A5EED5121EE1668CAE5D9";
	solar_elevation "-1.10224 rad";
	solar_azimuth "+0.867987 rad";
	solar_zenith "+2.67304 rad";
// tmyfile /tmp/input/ca-bakersfield-meadows-field-highwind-mocked.tmy3;
    tmyfile "ca-bakersfield-meadows-field-highwind-mocked.tmy3";
	temperature "+43.882 degF";
	humidity "+0.74 pu";
	extraterrestrial_direct_normal "+0 W/sf";
	pressure "+999 mbar";
	wind_speed "+1.2 m/s";
	wind_dir "+80 rad";
	record.low "+30.922 degF";
	record.high "+107.962 degF";
	record.solar "+95.2906 W/sf";
	rainfall "+0.59055 in/h";
	interpolate "QUADRATIC";
	heat_index "+42.6651 degF";
}
object powerflow.overhead_line_conductor {
	name "olc301c";
	guid "4D0458CD919160694ABE2ADDA2F62827";
	geometric_mean_radius "+0.0244 ft";
	resistance "+0.306 Ohm/mile";
	diameter "+0.721 in";
}
object powerflow.overhead_line_conductor {
	name "olc301n";
	guid "4B09FF46945BCF8C17B31E983D0F7B3B";
	geometric_mean_radius "+0.00814 ft";
	resistance "+0.592 Ohm/mile";
	diameter "+0.563 in";
}
object powerflow.overhead_line_conductor {
	name "olc309";
	guid "3E953E39A6E208695DD7126FA94F4E95";
	geometric_mean_radius "+0.00446 ft";
	resistance "+1.12 Ohm/mile";
	diameter "+0.398 in";
}
object powerflow.underground_line_conductor {
	name "ulc312";
	guid "651924F49525585E3CB31B756B5CDC65";
	outer_diameter "+1.06 in";
	conductor_gmr "+0.0111 ft";
	conductor_diameter "+0.368 in";
	conductor_resistance "+0.97 Ohm/mile";
	neutral_gmr "+0.00208 ft";
	neutral_diameter "+0.0640837 in";
	neutral_resistance "+14.8722 Ohm/mile";
	neutral_strands "16";
}
object powerflow.line_spacing {
	name "ls500301";
	guid "1D3733FAE8F15C655A4D96A218F2AB19";
	distance_AB "+2.5 ft";
	distance_BC "+4.5 ft";
	distance_AC "+7 ft";
	distance_AN "+5.65685 ft";
	distance_BN "+4.272 ft";
	distance_CN "+5 ft";
	distance_AE "+28 ft";
	distance_BE "+28 ft";
	distance_CE "+28 ft";
	distance_NE "+24 ft";
}
object powerflow.line_spacing {
	name "ls500302";
	guid "2071636C3DD18A6665FE23C1591A4A12";
	distance_AB "+4.5 ft";
	distance_BC "+7 ft";
	distance_AC "+2.5 ft";
	distance_AN "+4.272 ft";
	distance_BN "+5 ft";
	distance_CN "+5.65685 ft";
	distance_AE "+28 ft";
	distance_BE "+28 ft";
	distance_CE "+28 ft";
	distance_NE "+24 ft";
}
object powerflow.line_spacing {
	name "ls500303";
	guid "4791F171F066554F2F78E87356C20F4E";
	distance_AB "+7 ft";
	distance_BC "+2.5 ft";
	distance_AC "+4.5 ft";
	distance_AN "+5 ft";
	distance_BN "+5.65685 ft";
	distance_CN "+4.272 ft";
	distance_AE "+28 ft";
	distance_BE "+28 ft";
	distance_CE "+28 ft";
	distance_NE "+24 ft";
}
object powerflow.line_spacing {
	name "ls500304";
	guid "7C71DE9D1FB84E313B1972E1E6EF5896";
	distance_AB "+4.5 ft";
	distance_BC "+2.5 ft";
	distance_AC "+7 ft";
	distance_AN "+5 ft";
	distance_BN "+4.272 ft";
	distance_CN "+5.65685 ft";
	distance_AE "+28 ft";
	distance_BE "+28 ft";
	distance_CE "+28 ft";
	distance_NE "+24 ft";
}
object powerflow.line_spacing {
	name "ls500305";
	guid "12BF04C372E448DE4FA2F0F58F0E0E7F";
	distance_AB "+2.5 ft";
	distance_BC "+7 ft";
	distance_AC "+4.5 ft";
	distance_AN "+4.272 ft";
	distance_BN "+5.65685 ft";
	distance_CN "+5 ft";
	distance_AE "+28 ft";
	distance_BE "+28 ft";
	distance_CE "+28 ft";
	distance_NE "+24 ft";
}
object powerflow.line_spacing {
	name "ls500306";
	guid "4059CA4B31D4B9EF14861FA9A41881AA";
	distance_AB "+2.5 ft";
	distance_BC "+4.5 ft";
	distance_AC "+7 ft";
	distance_AN "+5.65685 ft";
	distance_BN "+4.272 ft";
	distance_CN "+5 ft";
	distance_AE "+28 ft";
	distance_BE "+28 ft";
	distance_CE "+28 ft";
	distance_NE "+24 ft";
}
object powerflow.line_spacing {
	name "ls505307";
	guid "14E71A78FB51638C3AD8D37FE6CD32A8";
	distance_AC "+7 ft";
	distance_AN "+5.65685 ft";
	distance_CN "+5 ft";
	distance_AE "+28 ft";
	distance_CE "+28 ft";
	distance_NE "+24 ft";
}
object powerflow.line_spacing {
	name "ls505308";
	guid "5F5500B1BF02D9EB1611C97A4DA1B0B1";
	distance_AB "+7 ft";
	distance_AN "+5.65685 ft";
	distance_BN "+5 ft";
	distance_AE "+28 ft";
	distance_BE "+28 ft";
	distance_NE "+24 ft";
}
object powerflow.line_spacing {
	name "ls510309";
	guid "26C48B299E019D6D3CB90DC618E686DE";
	distance_AN "+5.02494 ft";
	distance_AE "+28 ft";
	distance_NE "+24 ft";
}
object powerflow.line_spacing {
	name "ls510310";
	guid "7B94EF20F02DBB044223364D9982C19";
	distance_BN "+5.02494 ft";
	distance_BE "+28 ft";
	distance_NE "+24 ft";
}
object powerflow.line_spacing {
	name "ls510311";
	guid "2C38CF06E911D3112D4955FDBF6A2834";
	distance_CN "+5.02494 ft";
	distance_CE "+28 ft";
	distance_NE "+24 ft";
}
object powerflow.line_spacing {
	name "ls515312";
	guid "1852789E32A4C879240AED424E612C55";
	distance_AB "+0.5 ft";
	distance_BC "+0.5 ft";
	distance_AC "+1 ft";
}
object powerflow.line_configuration {
	name "lc301";
	guid "33DD7792509573FB4BD56F488D47D27";
	conductor_A "olc301c";
	conductor_B "olc301c";
	conductor_C "olc301c";
	conductor_N "olc301n";
	spacing "ls500301";
}
object powerflow.line_configuration {
	name "lc302";
	guid "AE96E8BBA5985B877582AE2A5E79700";
	conductor_A "olc301c";
	conductor_B "olc301c";
	conductor_C "olc301c";
	conductor_N "olc301n";
	spacing "ls500302";
}
object powerflow.line_configuration {
	name "lc303";
	guid "7D944F2F56DFE9BF124D6A389950A67E";
	conductor_A "olc301c";
	conductor_B "olc301c";
	conductor_C "olc301c";
	conductor_N "olc301n";
	spacing "ls500303";
}
object powerflow.line_configuration {
	name "lc304";
	guid "3AE43F3360097E872223E91CFCDE8FD1";
	conductor_A "olc301c";
	conductor_B "olc301c";
	conductor_C "olc301c";
	conductor_N "olc301n";
	spacing "ls500304";
}
object powerflow.line_configuration {
	name "lc305";
	guid "78143EC4B0B4B1872606703457F633EC";
	conductor_A "olc301c";
	conductor_B "olc301c";
	conductor_C "olc301c";
	conductor_N "olc301n";
	spacing "ls500305";
}
object powerflow.line_configuration {
	name "lc306";
	guid "410B7A851B9B74494C5F80F84E0B2E83";
	conductor_A "olc301c";
	conductor_B "olc301c";
	conductor_C "olc301c";
	conductor_N "olc301n";
	spacing "ls500306";
}
object powerflow.line_configuration {
	name "lc307";
	guid "457C9964A5A69A5E7D97E656E800F328";
	conductor_A "olc301c";
	conductor_C "olc301c";
	conductor_N "olc301n";
	spacing "ls505307";
}
object powerflow.line_configuration {
	name "lc308";
	guid "7577CC9B5A46F23A4E2AC8C9F979DE2B";
	conductor_A "olc301c";
	conductor_B "olc301c";
	conductor_N "olc301n";
	spacing "ls505308";
}
object powerflow.line_configuration {
	name "lc309";
	guid "56E26DE4EC3277F344215B228E206839";
	conductor_A "olc309";
	conductor_N "olc309";
	spacing "ls510309";
}
object powerflow.line_configuration {
	name "lc310";
	guid "7C9E0E6D70EC9C73771DE35557C94161";
	conductor_B "olc309";
	conductor_N "olc309";
	spacing "ls510310";
}
object powerflow.line_configuration {
	name "lc311";
	guid "2EE17E80421AFC8E7509606241AE16EC";
	conductor_C "olc309";
	conductor_N "olc309";
	spacing "ls510311";
}
object powerflow.line_configuration {
	name "lc312";
	guid "63680C626A447806409DDCE99963EEB1";
	conductor_A "ulc312";
	conductor_B "ulc312";
	conductor_C "ulc312";
	spacing "ls515312";
}
object powerflow.transformer_configuration {
	name "tc500";
	guid "5B2E7E7800998E7671C71B39A9F3E418";
	connect_type "DELTA_DELTA";
	install_type "PADMOUNT";
	primary_voltage "+4160 V";
	secondary_voltage "+480 V";
	power_rating "+150 kVA";
	powerA_rating "+50 kVA";
	powerB_rating "+50 kVA";
	powerC_rating "+50 kVA";
	resistance "+0.0127 pu*Ohm";
	reactance "+0.0272 pu*Ohm";
	impedance "+0.0127+0.0272j pu*Ohm";
	reactance_resistance_ratio "+4.5";
}
object powerflow.transformer_configuration {
	name "tc9999";
	guid "5A38A2FE712301BB3B29368731B69EF2";
	connect_type "DELTA_GWYE";
	install_type "PADMOUNT";
	primary_voltage "+115 V";
	secondary_voltage "+4160 V";
	power_rating "+5000 kVA";
	powerA_rating "+1666.67 kVA";
	powerB_rating "+1666.67 kVA";
	powerC_rating "+1666.67 kVA";
	resistance "+0.01 pu*Ohm";
	reactance "+0.08 pu*Ohm";
	impedance "+0.01+0.08j pu*Ohm";
	reactance_resistance_ratio "+4.5";
}
object powerflow.regulator_configuration {
	name "rc501";
	guid "352235B5ECAF49111AB69244C7545D8E";
	connect_type "WYE_WYE";
	band_center "+2400 V";
	band_width "+40 V";
	time_delay "+30 s";
	raise_taps "16";
	lower_taps "16";
	current_transducer_ratio "+700 pu";
	power_transducer_ratio "+20 pu";
	compensator_r_setting_A "+3 V";
	compensator_x_setting_A "+7.5 V";
	CT_phase "A";
	PT_phase "A";
	regulation "+0.1 %";
	Control "OUTPUT_VOLTAGE";
	Type "A";
	tap_pos_A "0";
	tap_pos_B "0";
	tap_pos_C "0";
}
object powerflow.regulator_configuration {
	name "rc502";
	guid "1F03D17916A94B006AB7EFA0E80F993";
	connect_type "WYE_WYE";
	band_center "+2400 V";
	band_width "+40 V";
	time_delay "+30 s";
	raise_taps "16";
	lower_taps "16";
	current_transducer_ratio "+50 pu";
	power_transducer_ratio "+20 pu";
	compensator_r_setting_A "+0.4 V";
	compensator_x_setting_A "+0.4 V";
	CT_phase "A";
	PT_phase "A";
	regulation "+0.1 %";
	Control "OUTPUT_VOLTAGE";
	Type "A";
	tap_pos_A "-1";
	tap_pos_B "0";
	tap_pos_C "0";
}
object powerflow.regulator_configuration {
	name "rc503";
	guid "79512A6283469B123AE3D9CA88BD05E3";
	connect_type "WYE_WYE";
	band_center "+2400 V";
	band_width "+20 V";
	time_delay "+30 s";
	raise_taps "16";
	lower_taps "16";
	current_transducer_ratio "+50 pu";
	power_transducer_ratio "+20 pu";
	compensator_r_setting_A "+0.4 V";
	compensator_r_setting_C "+0.4 V";
	compensator_x_setting_A "+0.4 V";
	compensator_x_setting_C "+0.4 V";
	CT_phase "CA";
	PT_phase "CA";
	regulation "+0.1 %";
	Control "OUTPUT_VOLTAGE";
	Type "A";
	tap_pos_A "0";
	tap_pos_B "0";
	tap_pos_C "-1";
}
object powerflow.regulator_configuration {
	name "rc504";
	guid "265D625AB4ADF0DC25C81A01DB13892B";
	connect_type "WYE_WYE";
	band_center "+2400 V";
	band_width "+40 V";
	time_delay "+30 s";
	raise_taps "16";
	lower_taps "16";
	current_transducer_ratio "+300 pu";
	power_transducer_ratio "+20 pu";
	compensator_r_setting_A "+0.6 V";
	compensator_r_setting_B "+1.4 V";
	compensator_r_setting_C "+0.2 V";
	compensator_x_setting_A "+1.3 V";
	compensator_x_setting_B "+2.6 V";
	compensator_x_setting_C "+1.4 V";
	regulation "+0.1 %";
	Control "OUTPUT_VOLTAGE";
	Type "A";
	tap_pos_A "8";
	tap_pos_B "1";
	tap_pos_C "5";
}
object powerflow.pole_configuration {
	name "pole_default";
	guid "461170960194E98616E03DC78CB3022F";
	design_ice_thickness "+0.25 in";
	design_wind_loading "+4 psi";
	design_temperature "+15 degF";
	overload_factor_vertical "+1.9";
	overload_factor_transverse_general "+1.75";
	overload_factor_transverse_crossing "+2.2";
	overload_factor_transverse_wire "+1.65";
	overload_factor_longitudinal_general "+1";
	overload_factor_longitudinal_deadend "+1.3";
	strength_factor_250b_wood "+0.85";
	strength_factor_250b_support "+1";
	strength_factor_250c_wood "+0.75";
	strength_factor_250c_support "+1";
	pole_length "+45 ft";
	pole_depth "+4.5 ft";
	ground_diameter "+10.3503 in";
	top_diameter "+6.05096 in";
	fiber_strength "+8000 psi";
	repair_time "+24 h";
}
object powerflow.pole_configuration {
	name "pole_steel";
	guid "1386CA292BD1E4EC7C3255638F80CA77";
	pole_type "STEEL";
	design_ice_thickness "+0.25 in";
	design_wind_loading "+4 psi";
	design_temperature "+15 degF";
	overload_factor_vertical "+1.9";
	overload_factor_transverse_general "+1.75";
	overload_factor_transverse_crossing "+2.2";
	overload_factor_transverse_wire "+1.65";
	overload_factor_longitudinal_general "+1";
	overload_factor_longitudinal_deadend "+1.3";
	strength_factor_250b_wood "+1.25";
	strength_factor_250b_support "+1";
	strength_factor_250c_wood "+0.75";
	strength_factor_250c_support "+1";
	pole_length "+45 ft";
	pole_depth "+4.5 ft";
	ground_diameter "+10.3503 in";
	top_diameter "+6.05096 in";
	fiber_strength "+8000 psi";
	repair_time "+24 h";
}
object powerflow.pole {
	name "node_3";
	groupid "nodevolts";
	latitude "35N23:4.56";
	longitude "119W0:7.92";
	guid "11133FE869465AA76E908A164EA46A3D";
	weather "weather";
	configuration "pole_default";
	pole_stress_polynomial_a "+1997.82 ft*lb";
	resisting_moment "+61721.9 ft*lb";
	repair_time "+24 h";
	// class.parent = powerflow.node
	maximum_voltage_error "+0.00240178 V";
	voltage_C "+2401.78+120d V";
	frequency_measure_type "NONE";
	sfm_Tf "+0.01 s";
	pll_Kp "+10 pu";
	pll_Ki "+100 pu";
	measured_frequency_A "+60 Hz";
	measured_frequency_B "+60 Hz";
	measured_frequency_C "+60 Hz";
	measured_frequency "+60 Hz";
	service_status "IN_SERVICE";
	service_status_double "-1";
	previous_uptime "-1 min";
	current_uptime "-1 min";
	GFA_freq_low_trip "+59.5 Hz";
	GFA_freq_high_trip "+60.5 Hz";
	GFA_volt_low_trip "+0.8 pu";
	GFA_volt_high_trip "+1.2 pu";
	GFA_reconnect_time "+300 s";
	GFA_freq_disconnect_time "+0.2 s";
	GFA_volt_disconnect_time "+0.2 s";
	GFA_status "TRUE";
	// class.parent = powerflow.powerflow_object
	phases "CN";
	nominal_voltage "+2401.78 V";
}
object powerflow.pole {
	name "node_8";
	groupid "nodevolts";
	latitude "35N23:7.02";
	longitude "119W0:1.86";
	guid "F80DBFA3DD5D53C47F3EC158BED3F7A";
	weather "weather";
	configuration "pole_steel";
	pole_stress_polynomial_a "+4081.75 ft*lb";
	resisting_moment "+90767.5 ft*lb";
	repair_time "+24 h";
	// class.parent = powerflow.node
	maximum_voltage_error "+0.00240178 V";
	voltage_A "+2401.78+0d V";
	voltage_B "+2401.78-120d V";
	voltage_C "+2401.78+120d V";
	frequency_measure_type "NONE";
	sfm_Tf "+0.01 s";
	pll_Kp "+10 pu";
	pll_Ki "+100 pu";
	measured_frequency_A "+60 Hz";
	measured_frequency_B "+60 Hz";
	measured_frequency_C "+60 Hz";
	measured_frequency "+60 Hz";
	service_status "IN_SERVICE";
	service_status_double "-1";
	previous_uptime "-1 min";
	current_uptime "-1 min";
	GFA_freq_low_trip "+59.5 Hz";
	GFA_freq_high_trip "+60.5 Hz";
	GFA_volt_low_trip "+0.8 pu";
	GFA_volt_high_trip "+1.2 pu";
	GFA_reconnect_time "+300 s";
	GFA_freq_disconnect_time "+0.2 s";
	GFA_volt_disconnect_time "+0.2 s";
	GFA_status "TRUE";
	// class.parent = powerflow.powerflow_object
	phases "ABCN";
	nominal_voltage "+2401.78 V";
}
object powerflow.pole {
	name "node_13";
	groupid "nodevolts";
	latitude "35N23:7.02";
	longitude "118W59:58.26";
	guid "23EEEF1AC0BF679F41FA90920039DCBA";
	weather "weather";
	configuration "pole_default";
	pole_stress_polynomial_a "+6837.85 ft*lb";
	resisting_moment "+61721.9 ft*lb";
	repair_time "+24 h";
	// class.parent = powerflow.node
	maximum_voltage_error "+0.00240178 V";
	voltage_A "+2401.78+0d V";
	voltage_B "+2401.78-120d V";
	voltage_C "+2401.78+120d V";
	frequency_measure_type "NONE";
	sfm_Tf "+0.01 s";
	pll_Kp "+10 pu";
	pll_Ki "+100 pu";
	measured_frequency_A "+60 Hz";
	measured_frequency_B "+60 Hz";
	measured_frequency_C "+60 Hz";
	measured_frequency "+60 Hz";
	service_status "IN_SERVICE";
	service_status_double "-1";
	previous_uptime "-1 min";
	current_uptime "-1 min";
	GFA_freq_low_trip "+59.5 Hz";
	GFA_freq_high_trip "+60.5 Hz";
	GFA_volt_low_trip "+0.8 pu";
	GFA_volt_high_trip "+1.2 pu";
	GFA_reconnect_time "+300 s";
	GFA_freq_disconnect_time "+0.2 s";
	GFA_volt_disconnect_time "+0.2 s";
	GFA_status "TRUE";
	// class.parent = powerflow.powerflow_object
	phases "ABCN";
	nominal_voltage "+2401.78 V";
}
object powerflow.substation {
	name "node_14";
	groupid "nodevolts";
	latitude "35N23:13.44";
	longitude "119W0:1.86";
	guid "F1CF41FC3DE496F65C1175F7FC9A683";
	base_power "+100 VA";
	power_convergence_value "+1 VA";
	distribution_voltage_A "+2401.78+0d V";
	// class.parent = powerflow.node
	bustype "SWING";
	maximum_voltage_error "+0.00240178 V";
	voltage_A "+2401.78+0d V";
	frequency_measure_type "NONE";
	sfm_Tf "+0.01 s";
	pll_Kp "+10 pu";
	pll_Ki "+100 pu";
	measured_frequency_A "+60 Hz";
	measured_frequency_B "+60 Hz";
	measured_frequency_C "+60 Hz";
	measured_frequency "+60 Hz";
	service_status "IN_SERVICE";
	service_status_double "-1";
	previous_uptime "-1 min";
	current_uptime "-1 min";
	GFA_freq_low_trip "+59.5 Hz";
	GFA_freq_high_trip "+60.5 Hz";
	GFA_volt_low_trip "+0.8 pu";
	GFA_volt_high_trip "+1.2 pu";
	GFA_reconnect_time "+300 s";
	GFA_freq_disconnect_time "+0.2 s";
	GFA_volt_disconnect_time "+0.2 s";
	GFA_status "TRUE";
	// class.parent = powerflow.powerflow_object
	phases "AN";
	nominal_voltage "+2401.78 V";
}
object powerflow.meter {
	parent "node_14";
	name "substation_meter";
	groupid "nodevolts";
	latitude "35N23:13.44";
	longitude "119W0:1.86";
	guid "2FAEF5B3CF693BE529180D334E80DA00";
	measured_energy_delta_timestep "-1 s";
	// class.parent = powerflow.node
	maximum_voltage_error "+0.00240178 V";
	voltage_A "+2401.78+0d V";
	frequency_measure_type "NONE";
	sfm_Tf "+0.01 s";
	pll_Kp "+10 pu";
	pll_Ki "+100 pu";
	measured_frequency_A "+60 Hz";
	measured_frequency_B "+60 Hz";
	measured_frequency_C "+60 Hz";
	measured_frequency "+60 Hz";
	service_status "IN_SERVICE";
	service_status_double "-1";
	previous_uptime "-1 min";
	current_uptime "-1 min";
	GFA_freq_low_trip "+59.5 Hz";
	GFA_freq_high_trip "+60.5 Hz";
	GFA_volt_low_trip "+0.8 pu";
	GFA_volt_high_trip "+1.2 pu";
	GFA_reconnect_time "+300 s";
	GFA_freq_disconnect_time "+0.2 s";
	GFA_volt_disconnect_time "+0.2 s";
	GFA_status "TRUE";
	topological_parent "node_14";
	// class.parent = powerflow.powerflow_object
	phases "AN";
	nominal_voltage "+2401.78 V";
}
object powerflow.pole {
	name "node_15";
	groupid "nodevolts";
	latitude "35N23:4.56";
	longitude "118W59:58.26";
	guid "180838BA009D6737304F4DF35D0FE820";
	weather "weather";
	configuration "pole_default";
	pole_stress_polynomial_a "+2068.96 ft*lb";
	resisting_moment "+61721.9 ft*lb";
	repair_time "+24 h";
	// class.parent = powerflow.node
	maximum_voltage_error "+0.00240178 V";
	voltage_C "+2401.78+120d V";
	frequency_measure_type "NONE";
	sfm_Tf "+0.01 s";
	pll_Kp "+10 pu";
	pll_Ki "+100 pu";
	measured_frequency_A "+60 Hz";
	measured_frequency_B "+60 Hz";
	measured_frequency_C "+60 Hz";
	measured_frequency "+60 Hz";
	service_status "IN_SERVICE";
	service_status_double "-1";
	previous_uptime "-1 min";
	current_uptime "-1 min";
	GFA_freq_low_trip "+59.5 Hz";
	GFA_freq_high_trip "+60.5 Hz";
	GFA_volt_low_trip "+0.8 pu";
	GFA_volt_high_trip "+1.2 pu";
	GFA_reconnect_time "+300 s";
	GFA_freq_disconnect_time "+0.2 s";
	GFA_volt_disconnect_time "+0.2 s";
	GFA_status "TRUE";
	// class.parent = powerflow.powerflow_object
	phases "CN";
	nominal_voltage "+2401.78 V";
}
object powerflow.node {
	name "node_18";
	groupid "nodevolts";
	latitude "35N23:15.18";
	longitude "118W59:58.26";
	guid "769939895E0B443EA7082E532FB9DA";
	maximum_voltage_error "+0.00240178 V";
	voltage_A "+2401.78+0d V";
	voltage_B "+2401.78-120d V";
	voltage_C "+2401.78+120d V";
	frequency_measure_type "NONE";
	sfm_Tf "+0.01 s";
	pll_Kp "+10 pu";
	pll_Ki "+100 pu";
	measured_frequency_A "+60 Hz";
	measured_frequency_B "+60 Hz";
	measured_frequency_C "+60 Hz";
	measured_frequency "+60 Hz";
	service_status "IN_SERVICE";
	service_status_double "-1";
	previous_uptime "-1 min";
	current_uptime "-1 min";
	GFA_freq_low_trip "+59.5 Hz";
	GFA_freq_high_trip "+60.5 Hz";
	GFA_volt_low_trip "+0.8 pu";
	GFA_volt_high_trip "+1.2 pu";
	GFA_reconnect_time "+300 s";
	GFA_freq_disconnect_time "+0.2 s";
	GFA_volt_disconnect_time "+0.2 s";
	GFA_status "TRUE";
	// class.parent = powerflow.powerflow_object
	phases "ABCN";
	nominal_voltage "+2401.78 V";
}
object powerflow.pole {
	name "node_21";
	groupid "nodevolts";
	latitude "35N23:18.12";
	longitude "118W59:58.26";
	guid "14E2906A4EB233DD4A97D1129786574D";
	weather "weather";
	configuration "pole_steel";
	pole_stress_polynomial_a "+4443.1 ft*lb";
	resisting_moment "+90767.5 ft*lb";
	repair_time "+24 h";
	// class.parent = powerflow.node
	maximum_voltage_error "+0.00240178 V";
	voltage_A "+2401.78+0d V";
	voltage_B "+2401.78-120d V";
	voltage_C "+2401.78+120d V";
	frequency_measure_type "NONE";
	sfm_Tf "+0.01 s";
	pll_Kp "+10 pu";
	pll_Ki "+100 pu";
	measured_frequency_A "+60 Hz";
	measured_frequency_B "+60 Hz";
	measured_frequency_C "+60 Hz";
	measured_frequency "+60 Hz";
	service_status "IN_SERVICE";
	service_status_double "-1";
	previous_uptime "-1 min";
	current_uptime "-1 min";
	GFA_freq_low_trip "+59.5 Hz";
	GFA_freq_high_trip "+60.5 Hz";
	GFA_volt_low_trip "+0.8 pu";
	GFA_volt_high_trip "+1.2 pu";
	GFA_reconnect_time "+300 s";
	GFA_freq_disconnect_time "+0.2 s";
	GFA_volt_disconnect_time "+0.2 s";
	GFA_status "TRUE";
	// class.parent = powerflow.powerflow_object
	phases "ABCN";
	nominal_voltage "+2401.78 V";
}
object powerflow.pole {
	name "node_23";
	groupid "nodevolts";
	latitude "35N23:20.58";
	longitude "118W59:58.26";
	guid "11C9BEC0C24144E51DF6D618F1E501AF";
	weather "weather";
	configuration "pole_default";
	pole_stress_polynomial_a "+4351.35 ft*lb";
	resisting_moment "+61721.9 ft*lb";
	repair_time "+24 h";
	// class.parent = powerflow.node
	maximum_voltage_error "+0.00240178 V";
	voltage_A "+2401.78+0d V";
	voltage_B "+2401.78-120d V";
	voltage_C "+2401.78+120d V";
	frequency_measure_type "NONE";
	sfm_Tf "+0.01 s";
	pll_Kp "+10 pu";
	pll_Ki "+100 pu";
	measured_frequency_A "+60 Hz";
	measured_frequency_B "+60 Hz";
	measured_frequency_C "+60 Hz";
	measured_frequency "+60 Hz";
	service_status "IN_SERVICE";
	service_status_double "-1";
	previous_uptime "-1 min";
	current_uptime "-1 min";
	GFA_freq_low_trip "+59.5 Hz";
	GFA_freq_high_trip "+60.5 Hz";
	GFA_volt_low_trip "+0.8 pu";
	GFA_volt_high_trip "+1.2 pu";
	GFA_reconnect_time "+300 s";
	GFA_freq_disconnect_time "+0.2 s";
	GFA_volt_disconnect_time "+0.2 s";
	GFA_status "TRUE";
	// class.parent = powerflow.powerflow_object
	phases "ABCN";
	nominal_voltage "+2401.78 V";
}
object powerflow.node {
	name "node_25";
	groupid "nodevolts";
	latitude "35N23:23.28";
	longitude "118W59:58.26";
	guid "4847EEDC6ACA53C9253227ACF000F669";
	maximum_voltage_error "+0.00240178 V";
	voltage_A "+2401.78+0d V";
	voltage_B "+2401.78-120d V";
	voltage_C "+2401.78+120d V";
	frequency_measure_type "NONE";
	sfm_Tf "+0.01 s";
	pll_Kp "+10 pu";
	pll_Ki "+100 pu";
	measured_frequency_A "+60 Hz";
	measured_frequency_B "+60 Hz";
	measured_frequency_C "+60 Hz";
	measured_frequency "+60 Hz";
	service_status "IN_SERVICE";
	service_status_double "-1";
	previous_uptime "-1 min";
	current_uptime "-1 min";
	GFA_freq_low_trip "+59.5 Hz";
	GFA_freq_high_trip "+60.5 Hz";
	GFA_volt_low_trip "+0.8 pu";
	GFA_volt_high_trip "+1.2 pu";
	GFA_reconnect_time "+300 s";
	GFA_freq_disconnect_time "+0.2 s";
	GFA_volt_disconnect_time "+0.2 s";
	GFA_status "TRUE";
	// class.parent = powerflow.powerflow_object
	phases "ABCN";
	nominal_voltage "+2401.78 V";
}
object powerflow.node {
	name "node_26";
	groupid "nodevolts";
	latitude "35N23:23.28";
	longitude "119W0:2.46";
	guid "1A2F6C3606BAE9B33B8D604E17CCA01";
	maximum_voltage_error "+0.00240178 V";
	voltage_A "+2401.78+0d V";
	voltage_C "+2401.78+120d V";
	frequency_measure_type "NONE";
	sfm_Tf "+0.01 s";
	pll_Kp "+10 pu";
	pll_Ki "+100 pu";
	measured_frequency_A "+60 Hz";
	measured_frequency_B "+60 Hz";
	measured_frequency_C "+60 Hz";
	measured_frequency "+60 Hz";
	service_status "IN_SERVICE";
	service_status_double "-1";
	previous_uptime "-1 min";
	current_uptime "-1 min";
	GFA_freq_low_trip "+59.5 Hz";
	GFA_freq_high_trip "+60.5 Hz";
	GFA_volt_low_trip "+0.8 pu";
	GFA_volt_high_trip "+1.2 pu";
	GFA_reconnect_time "+300 s";
	GFA_freq_disconnect_time "+0.2 s";
	GFA_volt_disconnect_time "+0.2 s";
	GFA_status "TRUE";
	// class.parent = powerflow.powerflow_object
	phases "ACN";
	nominal_voltage "+2401.78 V";
}
object powerflow.node {
	name "node_27";
	groupid "nodevolts";
	latitude "35N23:23.28";
	longitude "119W0:5.82";
	guid "6EE4977699F157CBEA2A77E0BA3EED4";
	maximum_voltage_error "+0.00240178 V";
	voltage_A "+2401.78+0d V";
	voltage_C "+2401.78+120d V";
	frequency_measure_type "NONE";
	sfm_Tf "+0.01 s";
	pll_Kp "+10 pu";
	pll_Ki "+100 pu";
	measured_frequency_A "+60 Hz";
	measured_frequency_B "+60 Hz";
	measured_frequency_C "+60 Hz";
	measured_frequency "+60 Hz";
	service_status "IN_SERVICE";
	service_status_double "-1";
	previous_uptime "-1 min";
	current_uptime "-1 min";
	GFA_freq_low_trip "+59.5 Hz";
	GFA_freq_high_trip "+60.5 Hz";
	GFA_volt_low_trip "+0.8 pu";
	GFA_volt_high_trip "+1.2 pu";
	GFA_reconnect_time "+300 s";
	GFA_freq_disconnect_time "+0.2 s";
	GFA_volt_disconnect_time "+0.2 s";
	GFA_status "TRUE";
	// class.parent = powerflow.powerflow_object
	phases "ACN";
	nominal_voltage "+2401.78 V";
}
object powerflow.node {
	name "node_36";
	groupid "nodevolts";
	latitude "35N23:8.76";
	longitude "118W59:53.70";
	guid "657E9E7A06260EEF21D30DA2A133710C";
	maximum_voltage_error "+0.00240178 V";
	voltage_A "+2401.78+0d V";
	voltage_B "+2401.78-120d V";
	frequency_measure_type "NONE";
	sfm_Tf "+0.01 s";
	pll_Kp "+10 pu";
	pll_Ki "+100 pu";
	measured_frequency_A "+60 Hz";
	measured_frequency_B "+60 Hz";
	measured_frequency_C "+60 Hz";
	measured_frequency "+60 Hz";
	service_status "IN_SERVICE";
	service_status_double "-1";
	previous_uptime "-1 min";
	current_uptime "-1 min";
	GFA_freq_low_trip "+59.5 Hz";
	GFA_freq_high_trip "+60.5 Hz";
	GFA_volt_low_trip "+0.8 pu";
	GFA_volt_high_trip "+1.2 pu";
	GFA_reconnect_time "+300 s";
	GFA_freq_disconnect_time "+0.2 s";
	GFA_volt_disconnect_time "+0.2 s";
	GFA_status "TRUE";
	// class.parent = powerflow.powerflow_object
	phases "ABN";
	nominal_voltage "+2401.78 V";
}
object powerflow.node {
	name "node_40";
	groupid "nodevolts";
	latitude "35N23:17.64";
	longitude "118W59:53.70";
	guid "2084F5F8EBDA9AC81EA32C331713D02C";
	maximum_voltage_error "+0.00240178 V";
	voltage_A "+2401.78+0d V";
	voltage_B "+2401.78-120d V";
	voltage_C "+2401.78+120d V";
	frequency_measure_type "NONE";
	sfm_Tf "+0.01 s";
	pll_Kp "+10 pu";
	pll_Ki "+100 pu";
	measured_frequency_A "+60 Hz";
	measured_frequency_B "+60 Hz";
	measured_frequency_C "+60 Hz";
	measured_frequency "+60 Hz";
	service_status "IN_SERVICE";
	service_status_double "-1";
	previous_uptime "-1 min";
	current_uptime "-1 min";
	GFA_freq_low_trip "+59.5 Hz";
	GFA_freq_high_trip "+60.5 Hz";
	GFA_volt_low_trip "+0.8 pu";
	GFA_volt_high_trip "+1.2 pu";
	GFA_reconnect_time "+300 s";
	GFA_freq_disconnect_time "+0.2 s";
	GFA_volt_disconnect_time "+0.2 s";
	GFA_status "TRUE";
	// class.parent = powerflow.powerflow_object
	phases "ABCN";
	nominal_voltage "+2401.78 V";
}
object powerflow.node {
	name "node_44";
	groupid "nodevolts";
	latitude "35N23:22.08";
	longitude "118W59:53.70";
	guid "1E2C7BAEBB8ECEB71630C35E99EC3D39";
	maximum_voltage_error "+0.00240178 V";
	voltage_A "+2401.78+0d V";
	voltage_B "+2401.78-120d V";
	voltage_C "+2401.78+120d V";
	frequency_measure_type "NONE";
	sfm_Tf "+0.01 s";
	pll_Kp "+10 pu";
	pll_Ki "+100 pu";
	measured_frequency_A "+60 Hz";
	measured_frequency_B "+60 Hz";
	measured_frequency_C "+60 Hz";
	measured_frequency "+60 Hz";
	service_status "IN_SERVICE";
	service_status_double "-1";
	previous_uptime "-1 min";
	current_uptime "-1 min";
	GFA_freq_low_trip "+59.5 Hz";
	GFA_freq_high_trip "+60.5 Hz";
	GFA_volt_low_trip "+0.8 pu";
	GFA_volt_high_trip "+1.2 pu";
	GFA_reconnect_time "+300 s";
	GFA_freq_disconnect_time "+0.2 s";
	GFA_volt_disconnect_time "+0.2 s";
	GFA_status "TRUE";
	// class.parent = powerflow.powerflow_object
	phases "ABCN";
	nominal_voltage "+2401.78 V";
}
object powerflow.node {
	name "node_54";
	groupid "nodevolts";
	latitude "35N23:7.02";
	longitude "118W59:49.44";
	guid "20AD13D9020CB54C801C83B5C4ACE8";
	maximum_voltage_error "+0.00240178 V";
	voltage_A "+2401.78+0d V";
	voltage_B "+2401.78-120d V";
	voltage_C "+2401.78+120d V";
	frequency_measure_type "NONE";
	sfm_Tf "+0.01 s";
	pll_Kp "+10 pu";
	pll_Ki "+100 pu";
	measured_frequency_A "+60 Hz";
	measured_frequency_B "+60 Hz";
	measured_frequency_C "+60 Hz";
	measured_frequency "+60 Hz";
	service_status "IN_SERVICE";
	service_status_double "-1";
	previous_uptime "-1 min";
	current_uptime "-1 min";
	GFA_freq_low_trip "+59.5 Hz";
	GFA_freq_high_trip "+60.5 Hz";
	GFA_volt_low_trip "+0.8 pu";
	GFA_volt_high_trip "+1.2 pu";
	GFA_reconnect_time "+300 s";
	GFA_freq_disconnect_time "+0.2 s";
	GFA_volt_disconnect_time "+0.2 s";
	GFA_status "TRUE";
	// class.parent = powerflow.powerflow_object
	phases "ABCN";
	nominal_voltage "+2401.78 V";
}
object powerflow.node {
	name "node_57";
	groupid "nodevolts";
	latitude "35N23:10.50";
	longitude "118W59:49.44";
	guid "4C54FCA6DF26471D748B3687AB82F452";
	maximum_voltage_error "+0.00240178 V";
	voltage_A "+2401.78+0d V";
	voltage_B "+2401.78-120d V";
	voltage_C "+2401.78+120d V";
	frequency_measure_type "NONE";
	sfm_Tf "+0.01 s";
	pll_Kp "+10 pu";
	pll_Ki "+100 pu";
	measured_frequency_A "+60 Hz";
	measured_frequency_B "+60 Hz";
	measured_frequency_C "+60 Hz";
	measured_frequency "+60 Hz";
	service_status "IN_SERVICE";
	service_status_double "-1";
	previous_uptime "-1 min";
	current_uptime "-1 min";
	GFA_freq_low_trip "+59.5 Hz";
	GFA_freq_high_trip "+60.5 Hz";
	GFA_volt_low_trip "+0.8 pu";
	GFA_volt_high_trip "+1.2 pu";
	GFA_reconnect_time "+300 s";
	GFA_freq_disconnect_time "+0.2 s";
	GFA_volt_disconnect_time "+0.2 s";
	GFA_status "TRUE";
	// class.parent = powerflow.powerflow_object
	phases "ABCN";
	nominal_voltage "+2401.78 V";
}
object powerflow.node {
	name "node_61";
	groupid "nodevolts";
	latitude "35N23:6.96";
	longitude "118W59:34.32";
	guid "4AF17B0C7D0C4C675ADD557D4606D1";
	maximum_voltage_error "+0.00240178 V";
	voltage_A "+2401.78+0d V";
	voltage_B "+2401.78-120d V";
	voltage_C "+2401.78+120d V";
	frequency_measure_type "NONE";
	sfm_Tf "+0.01 s";
	pll_Kp "+10 pu";
	pll_Ki "+100 pu";
	measured_frequency_A "+60 Hz";
	measured_frequency_B "+60 Hz";
	measured_frequency_C "+60 Hz";
	measured_frequency "+60 Hz";
	service_status "IN_SERVICE";
	service_status_double "-1";
	previous_uptime "-1 min";
	current_uptime "-1 min";
	GFA_freq_low_trip "+59.5 Hz";
	GFA_freq_high_trip "+60.5 Hz";
	GFA_volt_low_trip "+0.8 pu";
	GFA_volt_high_trip "+1.2 pu";
	GFA_reconnect_time "+300 s";
	GFA_freq_disconnect_time "+0.2 s";
	GFA_volt_disconnect_time "+0.2 s";
	GFA_status "TRUE";
	// class.parent = powerflow.powerflow_object
	phases "ABCN";
	nominal_voltage "+2401.78 V";
}
object powerflow.node {
	name "node_67";
	groupid "nodevolts";
	latitude "35N23:24.54";
	longitude "118W59:34.32";
	guid "4505E3D34639BEE97343956465F18ADD";
	maximum_voltage_error "+0.00240178 V";
	voltage_A "+2401.78+0d V";
	voltage_B "+2401.78-120d V";
	voltage_C "+2401.78+120d V";
	frequency_measure_type "NONE";
	sfm_Tf "+0.01 s";
	pll_Kp "+10 pu";
	pll_Ki "+100 pu";
	measured_frequency_A "+60 Hz";
	measured_frequency_B "+60 Hz";
	measured_frequency_C "+60 Hz";
	measured_frequency "+60 Hz";
	service_status "IN_SERVICE";
	service_status_double "-1";
	previous_uptime "-1 min";
	current_uptime "-1 min";
	GFA_freq_low_trip "+59.5 Hz";
	GFA_freq_high_trip "+60.5 Hz";
	GFA_volt_low_trip "+0.8 pu";
	GFA_volt_high_trip "+1.2 pu";
	GFA_reconnect_time "+300 s";
	GFA_freq_disconnect_time "+0.2 s";
	GFA_volt_disconnect_time "+0.2 s";
	GFA_status "TRUE";
	// class.parent = powerflow.powerflow_object
	phases "ABCN";
	nominal_voltage "+2401.78 V";
}
object powerflow.node {
	name "node_72";
	groupid "nodevolts";
	latitude "35N23:21.84";
	longitude "118W59:34.32";
	guid "56819468ACF970F06F80D2DF3C59E45D";
	maximum_voltage_error "+0.00240178 V";
	voltage_A "+2401.78+0d V";
	voltage_B "+2401.78-120d V";
	voltage_C "+2401.78+120d V";
	frequency_measure_type "NONE";
	sfm_Tf "+0.01 s";
	pll_Kp "+10 pu";
	pll_Ki "+100 pu";
	measured_frequency_A "+60 Hz";
	measured_frequency_B "+60 Hz";
	measured_frequency_C "+60 Hz";
	measured_frequency "+60 Hz";
	service_status "IN_SERVICE";
	service_status_double "-1";
	previous_uptime "-1 min";
	current_uptime "-1 min";
	GFA_freq_low_trip "+59.5 Hz";
	GFA_freq_high_trip "+60.5 Hz";
	GFA_volt_low_trip "+0.8 pu";
	GFA_volt_high_trip "+1.2 pu";
	GFA_reconnect_time "+300 s";
	GFA_freq_disconnect_time "+0.2 s";
	GFA_volt_disconnect_time "+0.2 s";
	GFA_status "TRUE";
	// class.parent = powerflow.powerflow_object
	phases "ABCN";
	nominal_voltage "+2401.78 V";
}
object powerflow.node {
	name "node_78";
	groupid "nodevolts";
	latitude "35N23:18.48";
	longitude "118W59:28.50";
	guid "1D44F969D9117C754B2851602EAAFB4C";
	maximum_voltage_error "+0.00240178 V";
	voltage_A "+2401.78+0d V";
	voltage_B "+2401.78-120d V";
	voltage_C "+2401.78+120d V";
	frequency_measure_type "NONE";
	sfm_Tf "+0.01 s";
	pll_Kp "+10 pu";
	pll_Ki "+100 pu";
	measured_frequency_A "+60 Hz";
	measured_frequency_B "+60 Hz";
	measured_frequency_C "+60 Hz";
	measured_frequency "+60 Hz";
	service_status "IN_SERVICE";
	service_status_double "-1";
	previous_uptime "-1 min";
	current_uptime "-1 min";
	GFA_freq_low_trip "+59.5 Hz";
	GFA_freq_high_trip "+60.5 Hz";
	GFA_volt_low_trip "+0.8 pu";
	GFA_volt_high_trip "+1.2 pu";
	GFA_reconnect_time "+300 s";
	GFA_freq_disconnect_time "+0.2 s";
	GFA_volt_disconnect_time "+0.2 s";
	GFA_status "TRUE";
	// class.parent = powerflow.powerflow_object
	phases "ABCN";
	nominal_voltage "+2401.78 V";
}
object powerflow.node {
	name "node_81";
	groupid "nodevolts";
	latitude "35N23:9.48";
	longitude "118W59:31.68";
	guid "DB5147929651DAA13BB0FC54E643E95";
	maximum_voltage_error "+0.00240178 V";
	voltage_A "+2401.78+0d V";
	voltage_B "+2401.78-120d V";
	voltage_C "+2401.78+120d V";
	frequency_measure_type "NONE";
	sfm_Tf "+0.01 s";
	pll_Kp "+10 pu";
	pll_Ki "+100 pu";
	measured_frequency_A "+60 Hz";
	measured_frequency_B "+60 Hz";
	measured_frequency_C "+60 Hz";
	measured_frequency "+60 Hz";
	service_status "IN_SERVICE";
	service_status_double "-1";
	previous_uptime "-1 min";
	current_uptime "-1 min";
	GFA_freq_low_trip "+59.5 Hz";
	GFA_freq_high_trip "+60.5 Hz";
	GFA_volt_low_trip "+0.8 pu";
	GFA_volt_high_trip "+1.2 pu";
	GFA_reconnect_time "+300 s";
	GFA_freq_disconnect_time "+0.2 s";
	GFA_volt_disconnect_time "+0.2 s";
	GFA_status "TRUE";
	// class.parent = powerflow.powerflow_object
	phases "ABCN";
	nominal_voltage "+2401.78 V";
}
object powerflow.node {
	name "node_89";
	groupid "nodevolts";
	latitude "35N23:12.96";
	longitude "118W59:43.08";
	guid "5C9E6302EB2785714A51F12191C60AC0";
	maximum_voltage_error "+0.00240178 V";
	voltage_A "+2401.78+0d V";
	voltage_B "+2401.78-120d V";
	voltage_C "+2401.78+120d V";
	frequency_measure_type "NONE";
	sfm_Tf "+0.01 s";
	pll_Kp "+10 pu";
	pll_Ki "+100 pu";
	measured_frequency_A "+60 Hz";
	measured_frequency_B "+60 Hz";
	measured_frequency_C "+60 Hz";
	measured_frequency "+60 Hz";
	service_status "IN_SERVICE";
	service_status_double "-1";
	previous_uptime "-1 min";
	current_uptime "-1 min";
	GFA_freq_low_trip "+59.5 Hz";
	GFA_freq_high_trip "+60.5 Hz";
	GFA_volt_low_trip "+0.8 pu";
	GFA_volt_high_trip "+1.2 pu";
	GFA_reconnect_time "+300 s";
	GFA_freq_disconnect_time "+0.2 s";
	GFA_volt_disconnect_time "+0.2 s";
	GFA_status "TRUE";
	// class.parent = powerflow.powerflow_object
	phases "ABCN";
	nominal_voltage "+2401.78 V";
}
object powerflow.node {
	name "node_91";
	groupid "nodevolts";
	latitude "35N23:12.96";
	longitude "118W59:45.84";
	guid "7CE424062CC53E68DA0D2383A8EBC7B";
	maximum_voltage_error "+0.00240178 V";
	voltage_A "+2401.78+0d V";
	voltage_B "+2401.78-120d V";
	voltage_C "+2401.78+120d V";
	frequency_measure_type "NONE";
	sfm_Tf "+0.01 s";
	pll_Kp "+10 pu";
	pll_Ki "+100 pu";
	measured_frequency_A "+60 Hz";
	measured_frequency_B "+60 Hz";
	measured_frequency_C "+60 Hz";
	measured_frequency "+60 Hz";
	service_status "IN_SERVICE";
	service_status_double "-1";
	previous_uptime "-1 min";
	current_uptime "-1 min";
	GFA_freq_low_trip "+59.5 Hz";
	GFA_freq_high_trip "+60.5 Hz";
	GFA_volt_low_trip "+0.8 pu";
	GFA_volt_high_trip "+1.2 pu";
	GFA_reconnect_time "+300 s";
	GFA_freq_disconnect_time "+0.2 s";
	GFA_volt_disconnect_time "+0.2 s";
	GFA_status "TRUE";
	// class.parent = powerflow.powerflow_object
	phases "ABCN";
	nominal_voltage "+2401.78 V";
}
object powerflow.node {
	name "node_93";
	groupid "nodevolts";
	latitude "35N23:12.96";
	longitude "118W59:48.54";
	guid "66B741428F7B2BE219E580A8FF46EC73";
	maximum_voltage_error "+0.00240178 V";
	voltage_A "+2401.78+0d V";
	voltage_B "+2401.78-120d V";
	voltage_C "+2401.78+120d V";
	frequency_measure_type "NONE";
	sfm_Tf "+0.01 s";
	pll_Kp "+10 pu";
	pll_Ki "+100 pu";
	measured_frequency_A "+60 Hz";
	measured_frequency_B "+60 Hz";
	measured_frequency_C "+60 Hz";
	measured_frequency "+60 Hz";
	service_status "IN_SERVICE";
	service_status_double "-1";
	previous_uptime "-1 min";
	current_uptime "-1 min";
	GFA_freq_low_trip "+59.5 Hz";
	GFA_freq_high_trip "+60.5 Hz";
	GFA_volt_low_trip "+0.8 pu";
	GFA_volt_high_trip "+1.2 pu";
	GFA_reconnect_time "+300 s";
	GFA_freq_disconnect_time "+0.2 s";
	GFA_volt_disconnect_time "+0.2 s";
	GFA_status "TRUE";
	// class.parent = powerflow.powerflow_object
	phases "ABCN";
	nominal_voltage "+2401.78 V";
}
object powerflow.node {
	name "node_97";
	groupid "nodevolts";
	latitude "35N23:27.00";
	longitude "118W59:34.32";
	guid "7CE275F495AA501041DEEF16DF0149CF";
	maximum_voltage_error "+0.00240178 V";
	voltage_A "+2401.78+0d V";
	voltage_B "+2401.78-120d V";
	voltage_C "+2401.78+120d V";
	frequency_measure_type "NONE";
	sfm_Tf "+0.01 s";
	pll_Kp "+10 pu";
	pll_Ki "+100 pu";
	measured_frequency_A "+60 Hz";
	measured_frequency_B "+60 Hz";
	measured_frequency_C "+60 Hz";
	measured_frequency "+60 Hz";
	service_status "IN_SERVICE";
	service_status_double "-1";
	previous_uptime "-1 min";
	current_uptime "-1 min";
	GFA_freq_low_trip "+59.5 Hz";
	GFA_freq_high_trip "+60.5 Hz";
	GFA_volt_low_trip "+0.8 pu";
	GFA_volt_high_trip "+1.2 pu";
	GFA_reconnect_time "+300 s";
	GFA_freq_disconnect_time "+0.2 s";
	GFA_volt_disconnect_time "+0.2 s";
	GFA_status "TRUE";
	// class.parent = powerflow.powerflow_object
	phases "ABCN";
	nominal_voltage "+2401.78 V";
}
object powerflow.node {
	name "node_101";
	groupid "nodevolts";
	latitude "35N23:27.00";
	longitude "118W59:38.58";
	guid "2BD8337228C5977E6EEBF7D34618E24";
	maximum_voltage_error "+0.00240178 V";
	voltage_A "+2401.78+0d V";
	voltage_B "+2401.78-120d V";
	voltage_C "+2401.78+120d V";
	frequency_measure_type "NONE";
	sfm_Tf "+0.01 s";
	pll_Kp "+10 pu";
	pll_Ki "+100 pu";
	measured_frequency_A "+60 Hz";
	measured_frequency_B "+60 Hz";
	measured_frequency_C "+60 Hz";
	measured_frequency "+60 Hz";
	service_status "IN_SERVICE";
	service_status_double "-1";
	previous_uptime "-1 min";
	current_uptime "-1 min";
	GFA_freq_low_trip "+59.5 Hz";
	GFA_freq_high_trip "+60.5 Hz";
	GFA_volt_low_trip "+0.8 pu";
	GFA_volt_high_trip "+1.2 pu";
	GFA_reconnect_time "+300 s";
	GFA_freq_disconnect_time "+0.2 s";
	GFA_volt_disconnect_time "+0.2 s";
	GFA_status "TRUE";
	// class.parent = powerflow.powerflow_object
	phases "ABCN";
	nominal_voltage "+2401.78 V";
}
object powerflow.node {
	name "node_105";
	groupid "nodevolts";
	latitude "35N23:29.70";
	longitude "118W59:38.58";
	guid "D15B9DBED04B93218F4B0D68453270";
	maximum_voltage_error "+0.00240178 V";
	voltage_A "+2401.78+0d V";
	voltage_B "+2401.78-120d V";
	voltage_C "+2401.78+120d V";
	frequency_measure_type "NONE";
	sfm_Tf "+0.01 s";
	pll_Kp "+10 pu";
	pll_Ki "+100 pu";
	measured_frequency_A "+60 Hz";
	measured_frequency_B "+60 Hz";
	measured_frequency_C "+60 Hz";
	measured_frequency "+60 Hz";
	service_status "IN_SERVICE";
	service_status_double "-1";
	previous_uptime "-1 min";
	current_uptime "-1 min";
	GFA_freq_low_trip "+59.5 Hz";
	GFA_freq_high_trip "+60.5 Hz";
	GFA_volt_low_trip "+0.8 pu";
	GFA_volt_high_trip "+1.2 pu";
	GFA_reconnect_time "+300 s";
	GFA_freq_disconnect_time "+0.2 s";
	GFA_volt_disconnect_time "+0.2 s";
	GFA_status "TRUE";
	// class.parent = powerflow.powerflow_object
	phases "ABCN";
	nominal_voltage "+2401.78 V";
}
object powerflow.node {
	name "node_108";
	groupid "nodevolts";
	latitude "35N23:32.94";
	longitude "118W59:38.58";
	guid "3084611E75B6D7221E2C2CB890B2C99A";
	maximum_voltage_error "+0.00240178 V";
	voltage_A "+2401.78+0d V";
	voltage_B "+2401.78-120d V";
	voltage_C "+2401.78+120d V";
	frequency_measure_type "NONE";
	sfm_Tf "+0.01 s";
	pll_Kp "+10 pu";
	pll_Ki "+100 pu";
	measured_frequency_A "+60 Hz";
	measured_frequency_B "+60 Hz";
	measured_frequency_C "+60 Hz";
	measured_frequency "+60 Hz";
	service_status "IN_SERVICE";
	service_status_double "-1";
	previous_uptime "-1 min";
	current_uptime "-1 min";
	GFA_freq_low_trip "+59.5 Hz";
	GFA_freq_high_trip "+60.5 Hz";
	GFA_volt_low_trip "+0.8 pu";
	GFA_volt_high_trip "+1.2 pu";
	GFA_reconnect_time "+300 s";
	GFA_freq_disconnect_time "+0.2 s";
	GFA_volt_disconnect_time "+0.2 s";
	GFA_status "TRUE";
	// class.parent = powerflow.powerflow_object
	phases "ABCN";
	nominal_voltage "+2401.78 V";
}
object powerflow.node {
	name "node_110";
	groupid "nodevolts";
	latitude "35N23:32.94";
	longitude "118W59:29.46";
	guid "6C7FA4A388595973D8981B65463B085";
	maximum_voltage_error "+0.00240178 V";
	voltage_A "+2401.78+0d V";
	frequency_measure_type "NONE";
	sfm_Tf "+0.01 s";
	pll_Kp "+10 pu";
	pll_Ki "+100 pu";
	measured_frequency_A "+60 Hz";
	measured_frequency_B "+60 Hz";
	measured_frequency_C "+60 Hz";
	measured_frequency "+60 Hz";
	service_status "IN_SERVICE";
	service_status_double "-1";
	previous_uptime "-1 min";
	current_uptime "-1 min";
	GFA_freq_low_trip "+59.5 Hz";
	GFA_freq_high_trip "+60.5 Hz";
	GFA_volt_low_trip "+0.8 pu";
	GFA_volt_high_trip "+1.2 pu";
	GFA_reconnect_time "+300 s";
	GFA_freq_disconnect_time "+0.2 s";
	GFA_volt_disconnect_time "+0.2 s";
	GFA_status "TRUE";
	// class.parent = powerflow.powerflow_object
	phases "AN";
	nominal_voltage "+2401.78 V";
}
object powerflow.node {
	name "node_135";
	groupid "nodevolts";
	latitude "35N23:15.18";
	longitude "118W59:58.26";
	guid "7C04A9B859411AA26ADD113C9780872C";
	maximum_voltage_error "+0.00240178 V";
	voltage_A "+2401.78+0d V";
	voltage_B "+2401.78-120d V";
	voltage_C "+2401.78+120d V";
	frequency_measure_type "NONE";
	sfm_Tf "+0.01 s";
	pll_Kp "+10 pu";
	pll_Ki "+100 pu";
	measured_frequency_A "+60 Hz";
	measured_frequency_B "+60 Hz";
	measured_frequency_C "+60 Hz";
	measured_frequency "+60 Hz";
	service_status "IN_SERVICE";
	service_status_double "-1";
	previous_uptime "-1 min";
	current_uptime "-1 min";
	GFA_freq_low_trip "+59.5 Hz";
	GFA_freq_high_trip "+60.5 Hz";
	GFA_volt_low_trip "+0.8 pu";
	GFA_volt_high_trip "+1.2 pu";
	GFA_reconnect_time "+300 s";
	GFA_freq_disconnect_time "+0.2 s";
	GFA_volt_disconnect_time "+0.2 s";
	GFA_status "TRUE";
	// class.parent = powerflow.powerflow_object
	phases "ABCN";
	nominal_voltage "+2401.78 V";
}
object powerflow.pole {
	name "node_149";
	groupid "nodevolts";
	latitude "35N23:9.84";
	longitude "119W0:11.34";
	guid "1D22F3108155E6A44ACDABCC22DF77B";
	weather "weather";
	configuration "pole_default";
	pole_stress_polynomial_a "+2932.2 ft*lb";
	resisting_moment "+61721.9 ft*lb";
	repair_time "+24 h";
	// class.parent = powerflow.node
	maximum_voltage_error "+0.00240178 V";
	voltage_A "+2401.78+0d V";
	voltage_B "+2401.78-120d V";
	voltage_C "+2401.78+120d V";
	frequency_measure_type "NONE";
	sfm_Tf "+0.01 s";
	pll_Kp "+10 pu";
	pll_Ki "+100 pu";
	measured_frequency_A "+60 Hz";
	measured_frequency_B "+60 Hz";
	measured_frequency_C "+60 Hz";
	measured_frequency "+60 Hz";
	service_status "IN_SERVICE";
	service_status_double "-1";
	previous_uptime "-1 min";
	current_uptime "-1 min";
	GFA_freq_low_trip "+59.5 Hz";
	GFA_freq_high_trip "+60.5 Hz";
	GFA_volt_low_trip "+0.8 pu";
	GFA_volt_high_trip "+1.2 pu";
	GFA_reconnect_time "+300 s";
	GFA_freq_disconnect_time "+0.2 s";
	GFA_volt_disconnect_time "+0.2 s";
	GFA_status "TRUE";
	// class.parent = powerflow.powerflow_object
	phases "ABCN";
	nominal_voltage "+2401.78 V";
}
object powerflow.node {
	name "node_150";
	groupid "nodevolts";
	latitude "35N23:9.84";
	longitude "119W0:11.34";
	guid "7DF69A3E9ED61B382897A7C6DD0413CC";
	bustype "SWING";
	maximum_voltage_error "+0.00240178 V";
	voltage_A "+2401.78+0j V";
	voltage_B "-1200.89-2080j V";
	voltage_C "-1200.89+2080j V";
	frequency_measure_type "NONE";
	sfm_Tf "+0.01 s";
	pll_Kp "+10 pu";
	pll_Ki "+100 pu";
	measured_frequency_A "+60 Hz";
	measured_frequency_B "+60 Hz";
	measured_frequency_C "+60 Hz";
	measured_frequency "+60 Hz";
	service_status "IN_SERVICE";
	service_status_double "-1";
	previous_uptime "-1 min";
	current_uptime "-1 min";
	GFA_freq_low_trip "+59.5 Hz";
	GFA_freq_high_trip "+60.5 Hz";
	GFA_volt_low_trip "+0.8 pu";
	GFA_volt_high_trip "+1.2 pu";
	GFA_reconnect_time "+300 s";
	GFA_freq_disconnect_time "+0.2 s";
	GFA_volt_disconnect_time "+0.2 s";
	GFA_status "TRUE";
	// class.parent = powerflow.powerflow_object
	phases "ABCN";
	nominal_voltage "+2401.78 V";
}
object powerflow.node {
	name "node_151";
	groupid "nodevolts";
	latitude "35N23:24.54";
	longitude "118W59:38.58";
	guid "227EAAFC71BB77C94D33ACF94C8C6EDE";
	maximum_voltage_error "+0.00240178 V";
	voltage_A "+2401.78+0d V";
	voltage_B "+2401.78-120d V";
	voltage_C "+2401.78+120d V";
	frequency_measure_type "NONE";
	sfm_Tf "+0.01 s";
	pll_Kp "+10 pu";
	pll_Ki "+100 pu";
	measured_frequency_A "+60 Hz";
	measured_frequency_B "+60 Hz";
	measured_frequency_C "+60 Hz";
	measured_frequency "+60 Hz";
	service_status "IN_SERVICE";
	service_status_double "-1";
	previous_uptime "-1 min";
	current_uptime "-1 min";
	GFA_freq_low_trip "+59.5 Hz";
	GFA_freq_high_trip "+60.5 Hz";
	GFA_volt_low_trip "+0.8 pu";
	GFA_volt_high_trip "+1.2 pu";
	GFA_reconnect_time "+300 s";
	GFA_freq_disconnect_time "+0.2 s";
	GFA_volt_disconnect_time "+0.2 s";
	GFA_status "TRUE";
	// class.parent = powerflow.powerflow_object
	phases "ABCN";
	nominal_voltage "+2401.78 V";
}
object powerflow.node {
	name "node_152";
	groupid "nodevolts";
	latitude "35N23:7.02";
	longitude "118W59:58.26";
	guid "7AE1C8CAFA97996D381083109FA0D241";
	maximum_voltage_error "+0.00240178 V";
	voltage_A "+2401.78+0d V";
	voltage_B "+2401.78-120d V";
	voltage_C "+2401.78+120d V";
	frequency_measure_type "NONE";
	sfm_Tf "+0.01 s";
	pll_Kp "+10 pu";
	pll_Ki "+100 pu";
	measured_frequency_A "+60 Hz";
	measured_frequency_B "+60 Hz";
	measured_frequency_C "+60 Hz";
	measured_frequency "+60 Hz";
	service_status "IN_SERVICE";
	service_status_double "-1";
	previous_uptime "-1 min";
	current_uptime "-1 min";
	GFA_freq_low_trip "+59.5 Hz";
	GFA_freq_high_trip "+60.5 Hz";
	GFA_volt_low_trip "+0.8 pu";
	GFA_volt_high_trip "+1.2 pu";
	GFA_reconnect_time "+300 s";
	GFA_freq_disconnect_time "+0.2 s";
	GFA_volt_disconnect_time "+0.2 s";
	GFA_status "TRUE";
	// class.parent = powerflow.powerflow_object
	phases "ABCN";
	nominal_voltage "+2401.78 V";
}
object powerflow.node {
	name "node_160";
	groupid "nodevolts";
	latitude "35N23:24.54";
	longitude "118W59:34.32";
	guid "48C54CB6261F3AE49054F8CB1B0023A";
	maximum_voltage_error "+0.00240178 V";
	voltage_A "+2401.78+0d V";
	voltage_B "+2401.78-120d V";
	voltage_C "+2401.78+120d V";
	frequency_measure_type "NONE";
	sfm_Tf "+0.01 s";
	pll_Kp "+10 pu";
	pll_Ki "+100 pu";
	measured_frequency_A "+60 Hz";
	measured_frequency_B "+60 Hz";
	measured_frequency_C "+60 Hz";
	measured_frequency "+60 Hz";
	service_status "IN_SERVICE";
	service_status_double "-1";
	previous_uptime "-1 min";
	current_uptime "-1 min";
	GFA_freq_low_trip "+59.5 Hz";
	GFA_freq_high_trip "+60.5 Hz";
	GFA_volt_low_trip "+0.8 pu";
	GFA_volt_high_trip "+1.2 pu";
	GFA_reconnect_time "+300 s";
	GFA_freq_disconnect_time "+0.2 s";
	GFA_volt_disconnect_time "+0.2 s";
	GFA_status "TRUE";
	// class.parent = powerflow.powerflow_object
	phases "ABCN";
	nominal_voltage "+2401.78 V";
}
object powerflow.node {
	name "node_197";
	groupid "nodevolts";
	latitude "35N23:27.00";
	longitude "118W59:34.32";
	guid "FC4364685A6C99326F151EE4D1DE46C";
	maximum_voltage_error "+0.00240178 V";
	voltage_A "+2401.78+0d V";
	voltage_B "+2401.78-120d V";
	voltage_C "+2401.78+120d V";
	frequency_measure_type "NONE";
	sfm_Tf "+0.01 s";
	pll_Kp "+10 pu";
	pll_Ki "+100 pu";
	measured_frequency_A "+60 Hz";
	measured_frequency_B "+60 Hz";
	measured_frequency_C "+60 Hz";
	measured_frequency "+60 Hz";
	service_status "IN_SERVICE";
	service_status_double "-1";
	previous_uptime "-1 min";
	current_uptime "-1 min";
	GFA_freq_low_trip "+59.5 Hz";
	GFA_freq_high_trip "+60.5 Hz";
	GFA_volt_low_trip "+0.8 pu";
	GFA_volt_high_trip "+1.2 pu";
	GFA_reconnect_time "+300 s";
	GFA_freq_disconnect_time "+0.2 s";
	GFA_volt_disconnect_time "+0.2 s";
	GFA_status "TRUE";
	// class.parent = powerflow.powerflow_object
	phases "ABCN";
	nominal_voltage "+2401.78 V";
}
object powerflow.node {
	name "node_250";
	groupid "nodevolts";
	latitude "35N23:28.26";
	longitude "118W59:51.60";
	guid "48C6CCE0F3C595762502B90D8652C551";
	maximum_voltage_error "+0.00240178 V";
	voltage_A "+2401.78+0d V";
	voltage_B "+2401.78-120d V";
	voltage_C "+2401.78+120d V";
	frequency_measure_type "NONE";
	sfm_Tf "+0.01 s";
	pll_Kp "+10 pu";
	pll_Ki "+100 pu";
	measured_frequency_A "+60 Hz";
	measured_frequency_B "+60 Hz";
	measured_frequency_C "+60 Hz";
	measured_frequency "+60 Hz";
	service_status "IN_SERVICE";
	service_status_double "-1";
	previous_uptime "-1 min";
	current_uptime "-1 min";
	GFA_freq_low_trip "+59.5 Hz";
	GFA_freq_high_trip "+60.5 Hz";
	GFA_volt_low_trip "+0.8 pu";
	GFA_volt_high_trip "+1.2 pu";
	GFA_reconnect_time "+300 s";
	GFA_freq_disconnect_time "+0.2 s";
	GFA_volt_disconnect_time "+0.2 s";
	GFA_status "TRUE";
	// class.parent = powerflow.powerflow_object
	phases "ABCN";
	nominal_voltage "+2401.78 V";
}
object powerflow.node {
	name "node_300";
	groupid "nodevolts";
	latitude "35N23:24.54";
	longitude "118W59:38.58";
	guid "5CA155FDF66DC0601AA8217C33F86717";
	maximum_voltage_error "+0.00240178 V";
	voltage_A "+2401.78+0d V";
	voltage_B "+2401.78-120d V";
	voltage_C "+2401.78+120d V";
	frequency_measure_type "NONE";
	sfm_Tf "+0.01 s";
	pll_Kp "+10 pu";
	pll_Ki "+100 pu";
	measured_frequency_A "+60 Hz";
	measured_frequency_B "+60 Hz";
	measured_frequency_C "+60 Hz";
	measured_frequency "+60 Hz";
	service_status "IN_SERVICE";
	service_status_double "-1";
	previous_uptime "-1 min";
	current_uptime "-1 min";
	GFA_freq_low_trip "+59.5 Hz";
	GFA_freq_high_trip "+60.5 Hz";
	GFA_volt_low_trip "+0.8 pu";
	GFA_volt_high_trip "+1.2 pu";
	GFA_reconnect_time "+300 s";
	GFA_freq_disconnect_time "+0.2 s";
	GFA_volt_disconnect_time "+0.2 s";
	GFA_status "TRUE";
	// class.parent = powerflow.powerflow_object
	phases "ABCN";
	nominal_voltage "+2401.78 V";
}
object powerflow.node {
	name "node_450";
	groupid "nodevolts";
	latitude "35N23:27.00";
	longitude "118W59:11.04";
	guid "148DBE788503E1AE1358EC9834F4105C";
	maximum_voltage_error "+0.00240178 V";
	voltage_A "+2401.78+0d V";
	voltage_B "+2401.78-120d V";
	voltage_C "+2401.78+120d V";
	frequency_measure_type "NONE";
	sfm_Tf "+0.01 s";
	pll_Kp "+10 pu";
	pll_Ki "+100 pu";
	measured_frequency_A "+60 Hz";
	measured_frequency_B "+60 Hz";
	measured_frequency_C "+60 Hz";
	measured_frequency "+60 Hz";
	service_status "IN_SERVICE";
	service_status_double "-1";
	previous_uptime "-1 min";
	current_uptime "-1 min";
	GFA_freq_low_trip "+59.5 Hz";
	GFA_freq_high_trip "+60.5 Hz";
	GFA_volt_low_trip "+0.8 pu";
	GFA_volt_high_trip "+1.2 pu";
	GFA_reconnect_time "+300 s";
	GFA_freq_disconnect_time "+0.2 s";
	GFA_volt_disconnect_time "+0.2 s";
	GFA_status "TRUE";
	// class.parent = powerflow.powerflow_object
	phases "ABCN";
	nominal_voltage "+2401.78 V";
}
object powerflow.node {
	name "node_610";
	groupid "nodevolts";
	latitude "35N23:6.96";
	longitude "118W59:34.32";
	guid "66165B3FD4C358EC6E353D29A0909533";
	maximum_voltage_error "+0.00240178 V";
	voltage_A "+2401.78+0d V";
	voltage_B "+2401.78-120d V";
	voltage_C "+2401.78+120d V";
	frequency_measure_type "NONE";
	sfm_Tf "+0.01 s";
	pll_Kp "+10 pu";
	pll_Ki "+100 pu";
	measured_frequency_A "+60 Hz";
	measured_frequency_B "+60 Hz";
	measured_frequency_C "+60 Hz";
	measured_frequency "+60 Hz";
	service_status "IN_SERVICE";
	service_status_double "-1";
	previous_uptime "-1 min";
	current_uptime "-1 min";
	GFA_freq_low_trip "+59.5 Hz";
	GFA_freq_high_trip "+60.5 Hz";
	GFA_volt_low_trip "+0.8 pu";
	GFA_volt_high_trip "+1.2 pu";
	GFA_reconnect_time "+300 s";
	GFA_freq_disconnect_time "+0.2 s";
	GFA_volt_disconnect_time "+0.2 s";
	GFA_status "TRUE";
	// class.parent = powerflow.powerflow_object
	phases "ABCN";
	nominal_voltage "+2401.78 V";
}
object powerflow.pole {
	name "node_901";
	groupid "nodevolts";
	latitude "35N23:9.24";
	longitude "119W0:1.86";
	guid "1F293B8C6A40C59640CD550289357703";
	weather "weather";
	configuration "pole_steel";
	pole_stress_polynomial_a "+1499.82 ft*lb";
	resisting_moment "+90767.5 ft*lb";
	repair_time "+24 h";
	// class.parent = powerflow.node
	maximum_voltage_error "+0.00240178 V";
	voltage_A "+2401.78+0d V";
	frequency_measure_type "NONE";
	sfm_Tf "+0.01 s";
	pll_Kp "+10 pu";
	pll_Ki "+100 pu";
	measured_frequency_A "+60 Hz";
	measured_frequency_B "+60 Hz";
	measured_frequency_C "+60 Hz";
	measured_frequency "+60 Hz";
	service_status "IN_SERVICE";
	service_status_double "-1";
	previous_uptime "-1 min";
	current_uptime "-1 min";
	GFA_freq_low_trip "+59.5 Hz";
	GFA_freq_high_trip "+60.5 Hz";
	GFA_volt_low_trip "+0.8 pu";
	GFA_volt_high_trip "+1.2 pu";
	GFA_reconnect_time "+300 s";
	GFA_freq_disconnect_time "+0.2 s";
	GFA_volt_disconnect_time "+0.2 s";
	GFA_status "TRUE";
	// class.parent = powerflow.powerflow_object
	phases "AN";
	nominal_voltage "+2401.78 V";
}
object powerflow.node {
	name "node_2501";
	groupid "nodevolts";
	latitude "35N23:23.28";
	longitude "118W59:58.26";
	guid "3DE46D04EA3C211B52FACCEBA680C5E9";
	maximum_voltage_error "+0.00240178 V";
	voltage_A "+2401.78+0d V";
	voltage_C "+2401.78+120d V";
	frequency_measure_type "NONE";
	sfm_Tf "+0.01 s";
	pll_Kp "+10 pu";
	pll_Ki "+100 pu";
	measured_frequency_A "+60 Hz";
	measured_frequency_B "+60 Hz";
	measured_frequency_C "+60 Hz";
	measured_frequency "+60 Hz";
	service_status "IN_SERVICE";
	service_status_double "-1";
	previous_uptime "-1 min";
	current_uptime "-1 min";
	GFA_freq_low_trip "+59.5 Hz";
	GFA_freq_high_trip "+60.5 Hz";
	GFA_volt_low_trip "+0.8 pu";
	GFA_volt_high_trip "+1.2 pu";
	GFA_reconnect_time "+300 s";
	GFA_freq_disconnect_time "+0.2 s";
	GFA_volt_disconnect_time "+0.2 s";
	GFA_status "TRUE";
	// class.parent = powerflow.powerflow_object
	phases "ACN";
	nominal_voltage "+2401.78 V";
}
object powerflow.node {
	name "node_6101";
	groupid "nodevolts";
	latitude "35N23:6.96";
	longitude "118W59:34.32";
	guid "6EB687E4005BC1E455142DE606EFCE87";
	maximum_voltage_error "+0.00240178 V";
	voltage_A "+2401.78+0d V";
	voltage_B "+2401.78-120d V";
	voltage_C "+2401.78+120d V";
	frequency_measure_type "NONE";
	sfm_Tf "+0.01 s";
	pll_Kp "+10 pu";
	pll_Ki "+100 pu";
	measured_frequency_A "+60 Hz";
	measured_frequency_B "+60 Hz";
	measured_frequency_C "+60 Hz";
	measured_frequency "+60 Hz";
	service_status "IN_SERVICE";
	service_status_double "-1";
	previous_uptime "-1 min";
	current_uptime "-1 min";
	GFA_freq_low_trip "+59.5 Hz";
	GFA_freq_high_trip "+60.5 Hz";
	GFA_volt_low_trip "+0.8 pu";
	GFA_volt_high_trip "+1.2 pu";
	GFA_reconnect_time "+300 s";
	GFA_freq_disconnect_time "+0.2 s";
	GFA_volt_disconnect_time "+0.2 s";
	GFA_status "TRUE";
	// class.parent = powerflow.powerflow_object
	phases "ABCN";
	nominal_voltage "+2401.78 V";
}
object powerflow.pole {
	name "node_15001";
	groupid "nodevolts";
	latitude "35N23:9.84";
	longitude "119W0:11.34";
	guid "2855F8B2E769D73448D514ED5BC300D";
	weather "weather";
	configuration "pole_default";
	pole_stress_polynomial_a "+895.107 ft*lb";
	resisting_moment "+61721.9 ft*lb";
	repair_time "+24 h";
	// class.parent = powerflow.node
	maximum_voltage_error "+0.00240178 V";
	voltage_A "+2401.78+0d V";
	voltage_B "+2401.78-120d V";
	voltage_C "+2401.78+120d V";
	frequency_measure_type "NONE";
	sfm_Tf "+0.01 s";
	pll_Kp "+10 pu";
	pll_Ki "+100 pu";
	measured_frequency_A "+60 Hz";
	measured_frequency_B "+60 Hz";
	measured_frequency_C "+60 Hz";
	measured_frequency "+60 Hz";
	service_status "IN_SERVICE";
	service_status_double "-1";
	previous_uptime "-1 min";
	current_uptime "-1 min";
	GFA_freq_low_trip "+59.5 Hz";
	GFA_freq_high_trip "+60.5 Hz";
	GFA_volt_low_trip "+0.8 pu";
	GFA_volt_high_trip "+1.2 pu";
	GFA_reconnect_time "+300 s";
...